mc/RBMO/case6.m
function mpc = case6
%CASE30    Power flow data for 30 bus, 6 generator case.
%   MATPOWER
%   $Id: case30.m,v 1.12 2010/03/10 18:08:13 ray Exp $

%% MATPOWER Case Format : Version 2
mpc.version = '2';

%%-----  Power Flow Data  -----%%
%% system MVA base
mpc.baseMVA = 100;

%% bus data
%	bus_i	type	Pd	Qd	Gs	Bs	area	Vm	Va	baseKV	zone	Vmax	Vmin

%%%%%必须切负荷%%%%%    测试负荷：80 85 80    极限负荷：80 95 120 ?
% mpc.bus = [
% 	1	3	0	0	0	0	0	0	0	135	1	1.05	0.95;
% 	2	2	0	0	0	0	0	0	0	135	1	1.05    0.95;
% 	3	1	0	0	0	0	0	0	0	135	1	1.05	0.95;
% 	4	1	80	70	0	0	0	0	0	135	1	1.05	0.95;
% 	5	1	85	70	0	0	0	0	0	135	1	1.05	0.95;   
% 	6	1	80	70	0	0	0	0	0	135	1	1.05	0.95;
% ];
mpc.bus = [
	1	3	0	0	0	0	0	0	0	135	1	1.05	0.95;
	2	2	0	0	0	0	0	0	0	135	1	1.05    0.95;
	3	1	0	0	0	0	0	0	0	135	1	1.05	0.95;
	4	1	70	70	0	0	0	0	0	135	1	1.05	0.95;
	5	1	70	70	0	0	0	0	0	135	1	1.05	0.95;   
	6	1	70	70	0	0	0	0	0	135	1	1.05	0.95;
];

%% generator data
%	bus	Pg	Qg	Qmax	Qmin	Vg	mBase	status	Pmax	Pmin	Pc1	Pc2
%	Qc1min	Qc1max	Qc2min	Qc2max	ramp_agc	ramp_10	ramp_30	ramp_q	apf
 mpc.gen = [
	1	100	0	0	0	1	100	1	200	50	0	0	0	0	0	0	0	0	0	0	0;
	2	60	0	0	0	1	100	1	150	37.5	0	0	0	0	0	0	0	0	0	0	0;
	3	50	0	0	0	1	100	1	180	45	0	0	0	0	0	0	0	0	0	0	0;
];

%% branch data
%	fbus	tbus	r	x	b	rateA	rateB	rateC	ratio	angle	status	angmin	angmax
% mpc.branch = [
% 	1	2	0.10	0.20	0.02	30	30	30	0	0	1	-360	360;
% 	1	4	0.05	0.20	0.02	50	50	50	0	0	1	-360	360;
% 	1	5	0.08	0.30	0.03	40	40	40	0	0	1	-360	360;
% 	2	3	0.05	0.25	0.03	20	20	20	0	0	1	-360	360;
% 	2	4	0.05	0.10	0.01	40	40	40	0	0	1	-360	360;
% 	2	5	0.10	0.30	0.02	20	20	20	0	0	1	-360	360;
% 	2	6	0.07	0.20	0.025	30	30	30	0	0	1	-360	360;
% 	3	5	0.12	0.26	0.025	20	20	20	0	0	1	-360	360;
% 	3	6	0.02	0.10	0.01	60	60	60	0	0	1	-360	360;
% 	4	5	0.20	0.40	0.04	20	20	20	0	0	1	-360	360;
% 	5	6	0.10	0.30	0.03	20	20	20	0	0	1	-360	360;
% ];
% mpc.branch = [
% 	1	2	0.10	0.20	0.04	45	40	30	0	0	1	-360	360;
% 	1	4	0.05	0.20	0.04	70	58	50	0	0	1	-360	360;
% 	1	5	0.08	0.30	0.06	55	55	40	0	0	1	-360	360;
% 	2	3	0.05	0.25	0.06	45	55	20	0	0	1	-360	360;
% 	2	4	0.05	0.10	0.02	65	80	40	0	0	1	-360	360;
% 	2	5	0.10	0.30	0.04	40	40	20	0	0	1	-360	360;
% 	2	6	0.07	0.20	0.05	70	60	30	0	0	1	-360	360;
% 	3	5	0.12	0.26	0.05	40	45	20	0	0	1	-360	360;
% 	3	6	0.02	0.10	0.02	80	80	60	0	0	1	-360	360;
% 	4	5	0.20	0.40	0.08	30	40	20	0	0	1	-360	360;
% 	5	6	0.10	0.30	0.06	30	40	20	0	0	1	-360	360;
% ];
mpc.branch = [
	1	2	0.10	0.20	0.04	40	40	30	0	0	1	-360	360;
	1	4	0.05	0.20	0.04	58	58	50	0	0	1	-360	360;
	1	5	0.08	0.30	0.06	55	55	40	0	0	1	-360	360;
	2	3	0.05	0.25	0.06	55	55	20	0	0	1	-360	360;
	2	4	0.05	0.10	0.02	80	80	40	0	0	1	-360	360;
	2	5	0.10	0.30	0.04	40	40	20	0	0	1	-360	360;
	2	6	0.07	0.20	0.05	60	60	30	0	0	1	-360	360;
	3	5	0.12	0.26	0.05	45	45	20	0	0	1	-360	360;
	3	6	0.02	0.10	0.02	80	80	60	0	0	1	-360	360;
	4	5	0.20	0.40	0.08	40	40	20	0	0	1	-360	360;
	5	6	0.10	0.30	0.06	40	40	20	0	0	1	-360	360;
];

%%-----  OPF Data  -----%%
%% area data
%	area	refbus
 mpc.areas = [
	1	8;
	2	23;
	3	26;
];


%% generator cost data
%	1	startup	shutdown	n	a   b   c
%	2	startup	shutdown	n	c(n-1)	...	c0
% mpc.gencost = [
% 	2	0	0	3	213.1   11.669   0.00533;
% 	2	0	0	3	200.0   10.333   0.00889;
% 	2	0	0	3	240.0   10.833   0.00741;
% ];
mpc.gencost = [
	2	0	0	3	213.1   11.669   0.00533;
	2	0	0	3	200.0   13.333   0.00889;
	2	0	0	3	240.0   15.833   0.00741;
];

end

